[General]
network = flora.simulations.LoRaNetworkTest
output-vector-file = ../results/n100-gw1-s${runnumber}.ini.vec
**.maxTransmissionDuration = 4s
**.energyDetection = -110dBm

#cmdenv-autoflush = true
#cmdenv-status-frequency = 10000000s
cmdenv-express-mode = true
cmdenv-output-file = ../logs/n100-gw1-s${runnumber}.txt
**.vector-recording = false

rng-class = "cMersenneTwister"
**.loRaGW[*].numUdpApps = 1
**.loRaGW[0].packetForwarder.localPort = 2000
**.loRaGW[0].packetForwarder.destPort = 1000
**.loRaGW[0].packetForwarder.destAddresses = "networkServer"
**.loRaGW[0].packetForwarder.indexNumber = 0

**.networkServer.numApps = 1
**.networkServer.**.evaluateADRinServer = true
**.networkServer.app[0].typename = "NetworkServerApp"
**.networkServer.app[0].destAddresses = "loRaGW[0]"
**.networkServer.app[0].destPort = 2000
**.networkServer.app[0].localPort = 1000
**.networkServer.app[0].adrMethod = ${"avg"}

**.numberOfPacketsToSend = 0 #${numberOfPAckets = 200..5000 step 200} #100 #obviously 0 means infinite number of packets
sim-time-limit = 12d
simtime-resolution = -11
repeat = 50
warmup-period = 2d
**.timeToFirstPacket = exponential(1000s)
**.timeToNextPacket = exponential(1000s)
**.alohaChannelModel = false

#nodes features
**.loRaNodes[*].**.initFromDisplayString = false
**.loRaNodes[*].**.evaluateADRinNode = true
**.loRaNodes[*].**initialLoRaBW = 125 kHz
**.loRaNodes[*].**initialLoRaCR = 4
**.loRaNodes[*].numApps = 1
**.loRaNodes[*].app[0].typename = "SimpleLoRaApp"

#gateway features
**.LoRaGWNic.radio.iAmGateway = true
**.loRaGW[*].**.initFromDisplayString = false

#power consumption features
**.loRaNodes[*].LoRaNic.radio.energyConsumer.typename = "LoRaEnergyConsumer"
**.loRaNodes[*].**.energySourceModule = "^.IdealEpEnergyStorage"
**.loRaNodes[*].LoRaNic.radio.energyConsumer.configFile = xmldoc("../energyConsumptionParameters.xml")

#general features

#urban scenario
**.alpha = 2.08
#**.sigma = 0 #ideal
#**.sigma = 1.785 #moderate
**.sigma = 3.57 #typical
**.d0 = 40m
**.PL_d0_db = 127.41

##suburban scenario
#**.alpha = 2.32
#**.sigma = 0 #ideal
##**.sigma = 3.540 #moderate
##**.sigma = 7.08 #typical
#**.d0 = 1000m
#**.PL_d0_db = 128.95

**.constraintAreaMinX = 0m
**.constraintAreaMinY = 0m
**.constraintAreaMinZ = 0m
**.constraintAreaMaxZ = 0m

LoRaNetworkTest.**.radio.separateTransmissionParts = false
LoRaNetworkTest.**.radio.separateReceptionParts = false

**.ipv4Delayer.config = xmldoc("../cloudDelays.xml")
**.radio.radioMediumModule = "LoRaMedium"
**.LoRaMedium.pathLossType = "LoRaLogNormalShadowing"
#**.LoRaMedium.pathLossType = "LoRaPathLossOulu"
**.minInterferenceTime = 0s
**.displayAddresses = false

# cache features
# **.LoRaMedium.mediumLimitCacheType = "LoRaMediumCache"
# **.LoRaMedium.rangeFilter = "communicationRange"
# **.LoRaMedium.neighborCacheType = "LoRaNeighborCache"
# **.LoRaMedium.neighborCache.range = 546m
# **.LoRaMedium.neighborCache.refillPeriod = 3000s
**.numberOfNodes = 100
**.numberOfGateways = 1
**.constraintAreaMaxX = 2376.0m
**.constraintAreaMaxY = 2500.0m
**.loRaGW[0].**.initialX = 1000m
**.loRaGW[0].**.initialY = 1000m
output-scalar-file = ../results/n100-gw1-s${runnumber}.ini.sca
**.loRaNodes[0].**initialX = 617.45m
**.loRaNodes[0].**initialY = 424.04m
**.loRaNodes[0].**initialLoRaSF = 12
**.loRaNodes[0].**initialLoRaTP = 11dBm
**.loRaNodes[1].**initialX = 493.01m
**.loRaNodes[1].**initialY = 988.22m
**.loRaNodes[1].**initialLoRaSF = 7
**.loRaNodes[1].**initialLoRaTP = 8dBm
**.loRaNodes[2].**initialX = 1073.2m
**.loRaNodes[2].**initialY = 1328.15m
**.loRaNodes[2].**initialLoRaSF = 12
**.loRaNodes[2].**initialLoRaTP = 5dBm
**.loRaNodes[3].**initialX = 1546.2m
**.loRaNodes[3].**initialY = 666.47m
**.loRaNodes[3].**initialLoRaSF = 10
**.loRaNodes[3].**initialLoRaTP = 11dBm
**.loRaNodes[4].**initialX = 1660.85m
**.loRaNodes[4].**initialY = 1531.96m
**.loRaNodes[4].**initialLoRaSF = 11
**.loRaNodes[4].**initialLoRaTP = 5dBm
**.loRaNodes[5].**initialX = 1335.22m
**.loRaNodes[5].**initialY = 1342.99m
**.loRaNodes[5].**initialLoRaSF = 7
**.loRaNodes[5].**initialLoRaTP = 2dBm
**.loRaNodes[6].**initialX = 1242.4m
**.loRaNodes[6].**initialY = 54.01m
**.loRaNodes[6].**initialLoRaSF = 11
**.loRaNodes[6].**initialLoRaTP = 11dBm
**.loRaNodes[7].**initialX = 892.58m
**.loRaNodes[7].**initialY = 1073.7m
**.loRaNodes[7].**initialLoRaSF = 12
**.loRaNodes[7].**initialLoRaTP = 8dBm
**.loRaNodes[8].**initialX = 1381.2m
**.loRaNodes[8].**initialY = 1312.99m
**.loRaNodes[8].**initialLoRaSF = 7
**.loRaNodes[8].**initialLoRaTP = 8dBm
**.loRaNodes[9].**initialX = 1516.75m
**.loRaNodes[9].**initialY = 619.82m
**.loRaNodes[9].**initialLoRaSF = 10
**.loRaNodes[9].**initialLoRaTP = 14dBm
**.loRaNodes[10].**initialX = 53.48m
**.loRaNodes[10].**initialY = 1045.77m
**.loRaNodes[10].**initialLoRaSF = 11
**.loRaNodes[10].**initialLoRaTP = 14dBm
**.loRaNodes[11].**initialX = 1198.16m
**.loRaNodes[11].**initialY = 1605.02m
**.loRaNodes[11].**initialLoRaSF = 11
**.loRaNodes[11].**initialLoRaTP = 2dBm
**.loRaNodes[12].**initialX = 1456.17m
**.loRaNodes[12].**initialY = 1309.53m
**.loRaNodes[12].**initialLoRaSF = 9
**.loRaNodes[12].**initialLoRaTP = 11dBm
**.loRaNodes[13].**initialX = 988.64m
**.loRaNodes[13].**initialY = 1252.54m
**.loRaNodes[13].**initialLoRaSF = 8
**.loRaNodes[13].**initialLoRaTP = 5dBm
**.loRaNodes[14].**initialX = 1661.24m
**.loRaNodes[14].**initialY = 1299.26m
**.loRaNodes[14].**initialLoRaSF = 8
**.loRaNodes[14].**initialLoRaTP = 8dBm
**.loRaNodes[15].**initialX = 1359.4m
**.loRaNodes[15].**initialY = 1611.88m
**.loRaNodes[15].**initialLoRaSF = 11
**.loRaNodes[15].**initialLoRaTP = 2dBm
**.loRaNodes[16].**initialX = 1498.39m
**.loRaNodes[16].**initialY = 741.54m
**.loRaNodes[16].**initialLoRaSF = 9
**.loRaNodes[16].**initialLoRaTP = 8dBm
**.loRaNodes[17].**initialX = 228.24m
**.loRaNodes[17].**initialY = 785.24m
**.loRaNodes[17].**initialLoRaSF = 8
**.loRaNodes[17].**initialLoRaTP = 11dBm
**.loRaNodes[18].**initialX = 1443.4m
**.loRaNodes[18].**initialY = 491.61m
**.loRaNodes[18].**initialLoRaSF = 12
**.loRaNodes[18].**initialLoRaTP = 11dBm
**.loRaNodes[19].**initialX = 644.4m
**.loRaNodes[19].**initialY = 606.32m
**.loRaNodes[19].**initialLoRaSF = 9
**.loRaNodes[19].**initialLoRaTP = 2dBm
**.loRaNodes[20].**initialX = 1274.22m
**.loRaNodes[20].**initialY = 1401.5m
**.loRaNodes[20].**initialLoRaSF = 10
**.loRaNodes[20].**initialLoRaTP = 5dBm
**.loRaNodes[21].**initialX = 1133.86m
**.loRaNodes[21].**initialY = 661.86m
**.loRaNodes[21].**initialLoRaSF = 7
**.loRaNodes[21].**initialLoRaTP = 5dBm
**.loRaNodes[22].**initialX = 1471.31m
**.loRaNodes[22].**initialY = 1300.26m
**.loRaNodes[22].**initialLoRaSF = 9
**.loRaNodes[22].**initialLoRaTP = 2dBm
**.loRaNodes[23].**initialX = 976.19m
**.loRaNodes[23].**initialY = 253.48m
**.loRaNodes[23].**initialLoRaSF = 7
**.loRaNodes[23].**initialLoRaTP = 5dBm
**.loRaNodes[24].**initialX = 552.69m
**.loRaNodes[24].**initialY = 494.29m
**.loRaNodes[24].**initialLoRaSF = 10
**.loRaNodes[24].**initialLoRaTP = 5dBm
**.loRaNodes[25].**initialX = 216.41m
**.loRaNodes[25].**initialY = 1356.26m
**.loRaNodes[25].**initialLoRaSF = 10
**.loRaNodes[25].**initialLoRaTP = 11dBm
**.loRaNodes[26].**initialX = 1159.55m
**.loRaNodes[26].**initialY = 754.87m
**.loRaNodes[26].**initialLoRaSF = 11
**.loRaNodes[26].**initialLoRaTP = 2dBm
**.loRaNodes[27].**initialX = 1482.36m
**.loRaNodes[27].**initialY = 186.36m
**.loRaNodes[27].**initialLoRaSF = 12
**.loRaNodes[27].**initialLoRaTP = 2dBm
**.loRaNodes[28].**initialX = 1439.04m
**.loRaNodes[28].**initialY = 1345.89m
**.loRaNodes[28].**initialLoRaSF = 10
**.loRaNodes[28].**initialLoRaTP = 2dBm
**.loRaNodes[29].**initialX = 930.53m
**.loRaNodes[29].**initialY = 955.15m
**.loRaNodes[29].**initialLoRaSF = 12
**.loRaNodes[29].**initialLoRaTP = 8dBm
**.loRaNodes[30].**initialX = 675.48m
**.loRaNodes[30].**initialY = 314.74m
**.loRaNodes[30].**initialLoRaSF = 8
**.loRaNodes[30].**initialLoRaTP = 14dBm
**.loRaNodes[31].**initialX = 868.37m
**.loRaNodes[31].**initialY = 1206.64m
**.loRaNodes[31].**initialLoRaSF = 11
**.loRaNodes[31].**initialLoRaTP = 5dBm
**.loRaNodes[32].**initialX = 138.72m
**.loRaNodes[32].**initialY = 535.87m
**.loRaNodes[32].**initialLoRaSF = 9
**.loRaNodes[32].**initialLoRaTP = 5dBm
**.loRaNodes[33].**initialX = 425.63m
**.loRaNodes[33].**initialY = 1676.58m
**.loRaNodes[33].**initialLoRaSF = 7
**.loRaNodes[33].**initialLoRaTP = 8dBm
**.loRaNodes[34].**initialX = 434.39m
**.loRaNodes[34].**initialY = 231.74m
**.loRaNodes[34].**initialLoRaSF = 10
**.loRaNodes[34].**initialLoRaTP = 5dBm
**.loRaNodes[35].**initialX = 928.41m
**.loRaNodes[35].**initialY = 760.95m
**.loRaNodes[35].**initialLoRaSF = 8
**.loRaNodes[35].**initialLoRaTP = 8dBm
**.loRaNodes[36].**initialX = 526.36m
**.loRaNodes[36].**initialY = 307.37m
**.loRaNodes[36].**initialLoRaSF = 11
**.loRaNodes[36].**initialLoRaTP = 14dBm
**.loRaNodes[37].**initialX = 958.19m
**.loRaNodes[37].**initialY = 659.24m
**.loRaNodes[37].**initialLoRaSF = 7
**.loRaNodes[37].**initialLoRaTP = 8dBm
**.loRaNodes[38].**initialX = 845.49m
**.loRaNodes[38].**initialY = 864.09m
**.loRaNodes[38].**initialLoRaSF = 10
**.loRaNodes[38].**initialLoRaTP = 11dBm
**.loRaNodes[39].**initialX = 1239.4m
**.loRaNodes[39].**initialY = 596.2m
**.loRaNodes[39].**initialLoRaSF = 12
**.loRaNodes[39].**initialLoRaTP = 8dBm
**.loRaNodes[40].**initialX = 1606.49m
**.loRaNodes[40].**initialY = 1230.79m
**.loRaNodes[40].**initialLoRaSF = 12
**.loRaNodes[40].**initialLoRaTP = 11dBm
**.loRaNodes[41].**initialX = 516.85m
**.loRaNodes[41].**initialY = 518.27m
**.loRaNodes[41].**initialLoRaSF = 11
**.loRaNodes[41].**initialLoRaTP = 5dBm
**.loRaNodes[42].**initialX = 1295.74m
**.loRaNodes[42].**initialY = 1277.8m
**.loRaNodes[42].**initialLoRaSF = 8
**.loRaNodes[42].**initialLoRaTP = 8dBm
**.loRaNodes[43].**initialX = 1564.0m
**.loRaNodes[43].**initialY = 1274.07m
**.loRaNodes[43].**initialLoRaSF = 10
**.loRaNodes[43].**initialLoRaTP = 8dBm
**.loRaNodes[44].**initialX = 1726.69m
**.loRaNodes[44].**initialY = 1472.61m
**.loRaNodes[44].**initialLoRaSF = 7
**.loRaNodes[44].**initialLoRaTP = 14dBm
**.loRaNodes[45].**initialX = 1082.36m
**.loRaNodes[45].**initialY = 1944.77m
**.loRaNodes[45].**initialLoRaSF = 12
**.loRaNodes[45].**initialLoRaTP = 11dBm
**.loRaNodes[46].**initialX = 772.53m
**.loRaNodes[46].**initialY = 983.99m
**.loRaNodes[46].**initialLoRaSF = 12
**.loRaNodes[46].**initialLoRaTP = 5dBm
**.loRaNodes[47].**initialX = 183.69m
**.loRaNodes[47].**initialY = 1502.87m
**.loRaNodes[47].**initialLoRaSF = 10
**.loRaNodes[47].**initialLoRaTP = 8dBm
**.loRaNodes[48].**initialX = 1369.24m
**.loRaNodes[48].**initialY = 1462.47m
**.loRaNodes[48].**initialLoRaSF = 9
**.loRaNodes[48].**initialLoRaTP = 14dBm
**.loRaNodes[49].**initialX = 187.25m
**.loRaNodes[49].**initialY = 1260.45m
**.loRaNodes[49].**initialLoRaSF = 11
**.loRaNodes[49].**initialLoRaTP = 2dBm
**.loRaNodes[50].**initialX = 893.33m
**.loRaNodes[50].**initialY = 1509.19m
**.loRaNodes[50].**initialLoRaSF = 8
**.loRaNodes[50].**initialLoRaTP = 2dBm
**.loRaNodes[51].**initialX = 923.9m
**.loRaNodes[51].**initialY = 127.49m
**.loRaNodes[51].**initialLoRaSF = 11
**.loRaNodes[51].**initialLoRaTP = 5dBm
**.loRaNodes[52].**initialX = 1866.78m
**.loRaNodes[52].**initialY = 1313.26m
**.loRaNodes[52].**initialLoRaSF = 8
**.loRaNodes[52].**initialLoRaTP = 8dBm
**.loRaNodes[53].**initialX = 531.59m
**.loRaNodes[53].**initialY = 1252.41m
**.loRaNodes[53].**initialLoRaSF = 7
**.loRaNodes[53].**initialLoRaTP = 2dBm
**.loRaNodes[54].**initialX = 560.31m
**.loRaNodes[54].**initialY = 1174.17m
**.loRaNodes[54].**initialLoRaSF = 11
**.loRaNodes[54].**initialLoRaTP = 5dBm
**.loRaNodes[55].**initialX = 1561.85m
**.loRaNodes[55].**initialY = 1614.66m
**.loRaNodes[55].**initialLoRaSF = 12
**.loRaNodes[55].**initialLoRaTP = 14dBm
**.loRaNodes[56].**initialX = 1593.62m
**.loRaNodes[56].**initialY = 1074.94m
**.loRaNodes[56].**initialLoRaSF = 12
**.loRaNodes[56].**initialLoRaTP = 11dBm
**.loRaNodes[57].**initialX = 251.99m
**.loRaNodes[57].**initialY = 1130.77m
**.loRaNodes[57].**initialLoRaSF = 10
**.loRaNodes[57].**initialLoRaTP = 11dBm
**.loRaNodes[58].**initialX = 1525.35m
**.loRaNodes[58].**initialY = 450.34m
**.loRaNodes[58].**initialLoRaSF = 10
**.loRaNodes[58].**initialLoRaTP = 8dBm
**.loRaNodes[59].**initialX = 1409.36m
**.loRaNodes[59].**initialY = 1829.83m
**.loRaNodes[59].**initialLoRaSF = 8
**.loRaNodes[59].**initialLoRaTP = 5dBm
**.loRaNodes[60].**initialX = 559.77m
**.loRaNodes[60].**initialY = 159.13m
**.loRaNodes[60].**initialLoRaSF = 12
**.loRaNodes[60].**initialLoRaTP = 5dBm
**.loRaNodes[61].**initialX = 958.31m
**.loRaNodes[61].**initialY = 1688.55m
**.loRaNodes[61].**initialLoRaSF = 9
**.loRaNodes[61].**initialLoRaTP = 8dBm
**.loRaNodes[62].**initialX = 684.02m
**.loRaNodes[62].**initialY = 197.97m
**.loRaNodes[62].**initialLoRaSF = 9
**.loRaNodes[62].**initialLoRaTP = 8dBm
**.loRaNodes[63].**initialX = 1568.75m
**.loRaNodes[63].**initialY = 1569.25m
**.loRaNodes[63].**initialLoRaSF = 9
**.loRaNodes[63].**initialLoRaTP = 11dBm
**.loRaNodes[64].**initialX = 441.33m
**.loRaNodes[64].**initialY = 1090.33m
**.loRaNodes[64].**initialLoRaSF = 8
**.loRaNodes[64].**initialLoRaTP = 2dBm
**.loRaNodes[65].**initialX = 1691.47m
**.loRaNodes[65].**initialY = 552.28m
**.loRaNodes[65].**initialLoRaSF = 8
**.loRaNodes[65].**initialLoRaTP = 8dBm
**.loRaNodes[66].**initialX = 1294.48m
**.loRaNodes[66].**initialY = 1605.26m
**.loRaNodes[66].**initialLoRaSF = 7
**.loRaNodes[66].**initialLoRaTP = 11dBm
**.loRaNodes[67].**initialX = 456.62m
**.loRaNodes[67].**initialY = 1621.99m
**.loRaNodes[67].**initialLoRaSF = 8
**.loRaNodes[67].**initialLoRaTP = 8dBm
**.loRaNodes[68].**initialX = 1574.08m
**.loRaNodes[68].**initialY = 282.5m
**.loRaNodes[68].**initialLoRaSF = 11
**.loRaNodes[68].**initialLoRaTP = 8dBm
**.loRaNodes[69].**initialX = 1920.06m
**.loRaNodes[69].**initialY = 1143.76m
**.loRaNodes[69].**initialLoRaSF = 11
**.loRaNodes[69].**initialLoRaTP = 5dBm
**.loRaNodes[70].**initialX = 1557.99m
**.loRaNodes[70].**initialY = 1711.3m
**.loRaNodes[70].**initialLoRaSF = 11
**.loRaNodes[70].**initialLoRaTP = 8dBm
**.loRaNodes[71].**initialX = 207.44m
**.loRaNodes[71].**initialY = 1143.7m
**.loRaNodes[71].**initialLoRaSF = 7
**.loRaNodes[71].**initialLoRaTP = 14dBm
**.loRaNodes[72].**initialX = 1317.53m
**.loRaNodes[72].**initialY = 563.19m
**.loRaNodes[72].**initialLoRaSF = 7
**.loRaNodes[72].**initialLoRaTP = 11dBm
**.loRaNodes[73].**initialX = 266.24m
**.loRaNodes[73].**initialY = 1037.02m
**.loRaNodes[73].**initialLoRaSF = 11
**.loRaNodes[73].**initialLoRaTP = 2dBm
**.loRaNodes[74].**initialX = 1664.26m
**.loRaNodes[74].**initialY = 300.04m
**.loRaNodes[74].**initialLoRaSF = 10
**.loRaNodes[74].**initialLoRaTP = 8dBm
**.loRaNodes[75].**initialX = 1505.28m
**.loRaNodes[75].**initialY = 1355.08m
**.loRaNodes[75].**initialLoRaSF = 10
**.loRaNodes[75].**initialLoRaTP = 11dBm
**.loRaNodes[76].**initialX = 73.37m
**.loRaNodes[76].**initialY = 1121.61m
**.loRaNodes[76].**initialLoRaSF = 10
**.loRaNodes[76].**initialLoRaTP = 8dBm
**.loRaNodes[77].**initialX = 1456.92m
**.loRaNodes[77].**initialY = 854.42m
**.loRaNodes[77].**initialLoRaSF = 12
**.loRaNodes[77].**initialLoRaTP = 5dBm
**.loRaNodes[78].**initialX = 1638.68m
**.loRaNodes[78].**initialY = 776.11m
**.loRaNodes[78].**initialLoRaSF = 7
**.loRaNodes[78].**initialLoRaTP = 5dBm
**.loRaNodes[79].**initialX = 1164.67m
**.loRaNodes[79].**initialY = 939.53m
**.loRaNodes[79].**initialLoRaSF = 10
**.loRaNodes[79].**initialLoRaTP = 11dBm
**.loRaNodes[80].**initialX = 910.35m
**.loRaNodes[80].**initialY = 1448.09m
**.loRaNodes[80].**initialLoRaSF = 8
**.loRaNodes[80].**initialLoRaTP = 5dBm
**.loRaNodes[81].**initialX = 669.34m
**.loRaNodes[81].**initialY = 1004.98m
**.loRaNodes[81].**initialLoRaSF = 7
**.loRaNodes[81].**initialLoRaTP = 8dBm
**.loRaNodes[82].**initialX = 321.04m
**.loRaNodes[82].**initialY = 313.54m
**.loRaNodes[82].**initialLoRaSF = 8
**.loRaNodes[82].**initialLoRaTP = 14dBm
**.loRaNodes[83].**initialX = 294.87m
**.loRaNodes[83].**initialY = 1652.15m
**.loRaNodes[83].**initialLoRaSF = 8
**.loRaNodes[83].**initialLoRaTP = 11dBm
**.loRaNodes[84].**initialX = 1203.51m
**.loRaNodes[84].**initialY = 1331.76m
**.loRaNodes[84].**initialLoRaSF = 12
**.loRaNodes[84].**initialLoRaTP = 11dBm
**.loRaNodes[85].**initialX = 858.03m
**.loRaNodes[85].**initialY = 1217.26m
**.loRaNodes[85].**initialLoRaSF = 7
**.loRaNodes[85].**initialLoRaTP = 2dBm
**.loRaNodes[86].**initialX = 1251.88m
**.loRaNodes[86].**initialY = 1456.65m
**.loRaNodes[86].**initialLoRaSF = 9
**.loRaNodes[86].**initialLoRaTP = 11dBm
**.loRaNodes[87].**initialX = 1322.39m
**.loRaNodes[87].**initialY = 1339.71m
**.loRaNodes[87].**initialLoRaSF = 10
**.loRaNodes[87].**initialLoRaTP = 11dBm
**.loRaNodes[88].**initialX = 1870.9m
**.loRaNodes[88].**initialY = 867.41m
**.loRaNodes[88].**initialLoRaSF = 7
**.loRaNodes[88].**initialLoRaTP = 14dBm
**.loRaNodes[89].**initialX = 1203.9m
**.loRaNodes[89].**initialY = 211.43m
**.loRaNodes[89].**initialLoRaSF = 8
**.loRaNodes[89].**initialLoRaTP = 8dBm
**.loRaNodes[90].**initialX = 986.87m
**.loRaNodes[90].**initialY = 1271.4m
**.loRaNodes[90].**initialLoRaSF = 10
**.loRaNodes[90].**initialLoRaTP = 14dBm
**.loRaNodes[91].**initialX = 1312.89m
**.loRaNodes[91].**initialY = 1747.41m
**.loRaNodes[91].**initialLoRaSF = 9
**.loRaNodes[91].**initialLoRaTP = 11dBm
**.loRaNodes[92].**initialX = 801.35m
**.loRaNodes[92].**initialY = 1938.11m
**.loRaNodes[92].**initialLoRaSF = 7
**.loRaNodes[92].**initialLoRaTP = 2dBm
**.loRaNodes[93].**initialX = 393.66m
**.loRaNodes[93].**initialY = 278.31m
**.loRaNodes[93].**initialLoRaSF = 10
**.loRaNodes[93].**initialLoRaTP = 11dBm
**.loRaNodes[94].**initialX = 1225.26m
**.loRaNodes[94].**initialY = 1420.83m
**.loRaNodes[94].**initialLoRaSF = 9
**.loRaNodes[94].**initialLoRaTP = 5dBm
**.loRaNodes[95].**initialX = 963.83m
**.loRaNodes[95].**initialY = 514.22m
**.loRaNodes[95].**initialLoRaSF = 7
**.loRaNodes[95].**initialLoRaTP = 8dBm
**.loRaNodes[96].**initialX = 1139.71m
**.loRaNodes[96].**initialY = 304.21m
**.loRaNodes[96].**initialLoRaSF = 12
**.loRaNodes[96].**initialLoRaTP = 14dBm
**.loRaNodes[97].**initialX = 1852.11m
**.loRaNodes[97].**initialY = 1018.84m
**.loRaNodes[97].**initialLoRaSF = 8
**.loRaNodes[97].**initialLoRaTP = 2dBm
**.loRaNodes[98].**initialX = 1283.76m
**.loRaNodes[98].**initialY = 1479.86m
**.loRaNodes[98].**initialLoRaSF = 11
**.loRaNodes[98].**initialLoRaTP = 11dBm
**.loRaNodes[99].**initialX = 1560.57m
**.loRaNodes[99].**initialY = 1065.67m
**.loRaNodes[99].**initialLoRaSF = 7
**.loRaNodes[99].**initialLoRaTP = 11dBm
[General]
network = flora.simulations.LoRaNetworkTest
output-vector-file = ../results/n100-gw1-s${runnumber}.ini.vec
**.maxTransmissionDuration = 4s
**.energyDetection = -110dBm

#cmdenv-autoflush = true
#cmdenv-status-frequency = 10000000s
cmdenv-express-mode = true
#cmdenv-output-file = cmd_env_log.txt
**.vector-recording = false

rng-class = "cMersenneTwister"
**.loRaGW[*].numUdpApps = 1
**.loRaGW[0].packetForwarder.localPort = 2000
**.loRaGW[0].packetForwarder.destPort = 1000
**.loRaGW[0].packetForwarder.destAddresses = "networkServer"
**.loRaGW[0].packetForwarder.indexNumber = 0

**.networkServer.numApps = 1
**.networkServer.**.evaluateADRinServer = true
**.networkServer.app[0].typename = "NetworkServerApp"
**.networkServer.app[0].destAddresses = "loRaGW[0]"
**.networkServer.app[0].destPort = 2000
**.networkServer.app[0].localPort = 1000
**.networkServer.app[0].adrMethod = ${"avg"}

**.numberOfPacketsToSend = 0 #${numberOfPAckets = 200..5000 step 200} #100 #obviously 0 means infinite number of packets
sim-time-limit = 12d
simtime-resolution = -11
repeat = 50
warmup-period = 2d

**.timeToFirstPacket = exponential(1000s)
**.timeToNextPacket = exponential(1000s)
**.alohaChannelModel = false

#nodes features
**.numberOfNodes = 100
**.loRaNodes[*].**.initFromDisplayString = false
**.loRaNodes[*].**.evaluateADRinNode = true
**.loRaNodes[*].**initialLoRaBW = 125 kHz
**.loRaNodes[*].**initialLoRaCR = 4
**.loRaNodes[*].numApps = 1
**.loRaNodes[*].app[0].typename = "SimpleLoRaApp"

# random deployment of nodes in a square square area
**.loRaNodes[*].**.initialX = uniform(0m, 480m)
**.loRaNodes[*].**.initialY = uniform(0m, 480m)

#gateway features
**.numberOfGateways = 1
**.LoRaGWNic.radio.iAmGateway = true
**.loRaGW[*].**.initFromDisplayString = false
**.loRaGW[0].**.initialX = 240.00m
**.loRaGW[0].**.initialY = 240.00m

#power consumption features
**.loRaNodes[*].LoRaNic.radio.energyConsumer.typename = "LoRaEnergyConsumer"
**.loRaNodes[*].**.energySourceModule = "^.IdealEpEnergyStorage"
**.loRaNodes[*].LoRaNic.radio.energyConsumer.configFile = xmldoc("../energyConsumptionParameters.xml")

#general features
**.sigma = 3.57
**.constraintAreaMinX = 0m
**.constraintAreaMinY = 0m
**.constraintAreaMinZ = 0m
**.constraintAreaMaxX = 480m
**.constraintAreaMaxY = 480m
**.constraintAreaMaxZ = 0m

LoRaNetworkTest.**.radio.separateTransmissionParts = false
LoRaNetworkTest.**.radio.separateReceptionParts = false

**.ipv4Delayer.config = xmldoc("../cloudDelays.xml")
**.radio.radioMediumModule = "LoRaMedium"
**.LoRaMedium.pathLossType = "LoRaLogNormalShadowing"
#**.LoRaMedium.pathLossType = "LoRaPathLossOulu"
**.minInterferenceTime = 0s
**.displayAddresses = false

# cache features
**.LoRaMedium.mediumLimitCacheType = "LoRaMediumCache"
**.LoRaMedium.rangeFilter = "communicationRange"
**.LoRaMedium.neighborCacheType = "LoRaNeighborCache"
**.LoRaMedium.neighborCache.range = 546m
**.LoRaMedium.neighborCache.refillPeriod = 3000s


output-scalar-file = ../results/n100-gw1-s${runnumber}.ini.sca
