[General]
network = flora.simulations.LoRaNetworkTest
eventlog-file = ../results/${configname}-${iterationvarsf}-${repetition}.elog
fname-append-host = false
output-vector-file = ../results/${configname}/n100-gw1-s${runnumber}.ini.vec
output-scalar-file = ../results/${configname}/n100-gw1-s${runnumber}.ini.sca
record-eventlog = true
resultdir-subdivision = false
seed-set = ${repetition}
**.statistic-recording = true
**.maxTransmissionDuration = 4s
**.energyDetection = -110dBm

#cmdenv-autoflush = true
#cmdenv-status-frequency = 10000000s
cmdenv-express-mode = true
#cmdenv-output-file = cmd_env_log.txt
**.vector-recording = true

rng-class = "cMersenneTwister"
**.loRaGW[*].numUdpApps = 1
**.loRaGW[0].packetForwarder.localPort = 2000
**.loRaGW[0].packetForwarder.destPort = 1000
**.loRaGW[0].packetForwarder.destAddresses = "networkServer"
**.loRaGW[0].packetForwarder.indexNumber = 0

**.networkServer.numApps = 1
**.networkServer.**.evaluateADRinServer = true
**.networkServer.app[0].typename = "NetworkServerApp"
**.networkServer.app[0].destAddresses = "loRaGW[0]"
**.networkServer.app[0].destPort = 2000
**.networkServer.app[0].localPort = 1000
**.networkServer.app[0].adrMethod = ${g="max"}

**.numberOfPacketsToSend = 0 #${numberOfPAckets = 200..5000 step 200} #100 #obviously 0 means infinite number of packets
sim-time-limit = 12d
simtime-resolution = -11
repeat = 5
warmup-period = 2d

experiment-label = "TestingSeed"
replication-label = "#${repetition}"

**.timeToFirstPacket = exponential(1000s)
**.timeToNextPacket = exponential(1000s)
**.alohaChannelModel = false

#nodes features
**.numberOfNodes = 100
**.loRaNodes[*].**.initFromDisplayString = false
**.loRaNodes[*].**.evaluateADRinNode = false
**.loRaNodes[*].**initialLoRaSF = intuniform(7,12)
#**.loRaNodes[*].**initialLoRaTP = uniform(2dBm,5dBm,8dBm,11dBm,14dBm)
**.loRaNodes[*].**initialLoRaBW = 125 kHz
**.loRaNodes[*].**initialLoRaCR = 4
#**.loRaNodes[*].**initialLoRaTP = 2dBm + (3dBm * intuniform(0dBm, 4dBm))
**.loRaNodes[*].numApps = 1
**.loRaNodes[*].app[0].typename = "SimpleLoRaApp"

## random deployment of nodes in a square square area
#**.loRaNodes[*].**.initialX = uniform(0m, 480m)
#**.loRaNodes[*].**.initialY = uniform(0m, 480m)

#gateway features
**.numberOfGateways = 1
**.LoRaGWNic.radio.iAmGateway = true
**.loRaGW[*].**.initFromDisplayString = false
**.loRaGW[0].**.initialX = 240.00m
**.loRaGW[0].**.initialY = 240.00m

#**.loRaGW[0].**.initialX = 544.00m
#**.loRaGW[0].**.initialY = 544.00m

#power consumption features
**.loRaNodes[*].LoRaNic.radio.energyConsumer.typename = "LoRaEnergyConsumer"
**.loRaNodes[*].**.energySourceModule = "^.IdealEpEnergyStorage"
**.loRaNodes[*].LoRaNic.radio.energyConsumer.configFile = xmldoc("../energyConsumptionParameters.xml")

#general features
#**.sigma = 3.57
**.constraintAreaMinX = 0m
**.constraintAreaMinY = 0m
**.constraintAreaMinZ = 0m
**.constraintAreaMaxX = 480m
**.constraintAreaMaxY = 480m
**.constraintAreaMaxZ = 0m

#urban scenario
**.alpha = 2.08
#**.sigma = 0 #ideal
#**.sigma = 1.785 #moderate
**.sigma = 3.57 #typical
**.d0 = 40m
**.PL_d0_db = 127.41

##suburban scenario
#**.alpha = 2.32
#**.sigma = 0 #ideal
##**.sigma = 3.540 #moderate
##**.sigma = 7.08 #typical
#**.d0 = 1000m
#**.PL_d0_db = 128.95


#**.constraintAreaMaxX = 2376.0m
#**.constraintAreaMaxY = 1090.0m


LoRaNetworkTest.**.radio.separateTransmissionParts = false
LoRaNetworkTest.**.radio.separateReceptionParts = false

**.ipv4Delayer.config = xmldoc("../cloudDelays.xml")
**.radio.radioMediumModule = "LoRaMedium"
**.LoRaMedium.pathLossType = "LoRaLogNormalShadowing"
#**.LoRaMedium.pathLossType = "LoRaPathLossOulu"
**.minInterferenceTime = 0s
**.displayAddresses = false

# cache features
**.LoRaMedium.mediumLimitCacheType = "LoRaMediumCache"
**.LoRaMedium.rangeFilter = "communicationRange"
**.LoRaMedium.neighborCacheType = "LoRaNeighborCache"
**.LoRaMedium.neighborCache.range = 546m
**.LoRaMedium.neighborCache.refillPeriod = 3000s

**.loRaNodes[0].**initialLoRaTP = 8dBm
**.loRaNodes[1].**initialLoRaTP = 8dBm
**.loRaNodes[2].**initialLoRaTP = 8dBm
**.loRaNodes[3].**initialLoRaTP = 2dBm
**.loRaNodes[4].**initialLoRaTP = 8dBm
**.loRaNodes[5].**initialLoRaTP = 2dBm
**.loRaNodes[6].**initialLoRaTP = 8dBm
**.loRaNodes[7].**initialLoRaTP = 8dBm
**.loRaNodes[8].**initialLoRaTP = 8dBm
**.loRaNodes[9].**initialLoRaTP = 8dBm
**.loRaNodes[10].**initialLoRaTP = 11dBm
**.loRaNodes[11].**initialLoRaTP = 8dBm
**.loRaNodes[12].**initialLoRaTP = 8dBm
**.loRaNodes[13].**initialLoRaTP = 8dBm
**.loRaNodes[14].**initialLoRaTP = 8dBm
**.loRaNodes[15].**initialLoRaTP = 8dBm
**.loRaNodes[16].**initialLoRaTP = 2dBm
**.loRaNodes[17].**initialLoRaTP = 5dBm
**.loRaNodes[18].**initialLoRaTP = 8dBm
**.loRaNodes[19].**initialLoRaTP = 11dBm
**.loRaNodes[20].**initialLoRaTP = 5dBm
**.loRaNodes[21].**initialLoRaTP = 2dBm
**.loRaNodes[22].**initialLoRaTP = 8dBm
**.loRaNodes[23].**initialLoRaTP = 8dBm
**.loRaNodes[24].**initialLoRaTP = 8dBm
**.loRaNodes[25].**initialLoRaTP = 2dBm
**.loRaNodes[26].**initialLoRaTP = 2dBm
**.loRaNodes[27].**initialLoRaTP = 8dBm
**.loRaNodes[28].**initialLoRaTP = 5dBm
**.loRaNodes[29].**initialLoRaTP = 2dBm
**.loRaNodes[30].**initialLoRaTP = 8dBm
**.loRaNodes[31].**initialLoRaTP = 8dBm
**.loRaNodes[32].**initialLoRaTP = 8dBm
**.loRaNodes[33].**initialLoRaTP = 5dBm
**.loRaNodes[34].**initialLoRaTP = 2dBm
**.loRaNodes[35].**initialLoRaTP = 8dBm
**.loRaNodes[36].**initialLoRaTP = 2dBm
**.loRaNodes[37].**initialLoRaTP = 11dBm
**.loRaNodes[38].**initialLoRaTP = 8dBm
**.loRaNodes[39].**initialLoRaTP = 11dBm
**.loRaNodes[40].**initialLoRaTP = 8dBm
**.loRaNodes[41].**initialLoRaTP = 11dBm
**.loRaNodes[42].**initialLoRaTP = 8dBm
**.loRaNodes[43].**initialLoRaTP = 8dBm
**.loRaNodes[44].**initialLoRaTP = 5dBm
**.loRaNodes[45].**initialLoRaTP = 5dBm
**.loRaNodes[46].**initialLoRaTP = 8dBm
**.loRaNodes[47].**initialLoRaTP = 8dBm
**.loRaNodes[48].**initialLoRaTP = 8dBm
**.loRaNodes[49].**initialLoRaTP = 2dBm
**.loRaNodes[50].**initialLoRaTP = 2dBm
**.loRaNodes[51].**initialLoRaTP = 11dBm
**.loRaNodes[52].**initialLoRaTP = 5dBm
**.loRaNodes[53].**initialLoRaTP = 8dBm
**.loRaNodes[54].**initialLoRaTP = 8dBm
**.loRaNodes[55].**initialLoRaTP = 8dBm
**.loRaNodes[56].**initialLoRaTP = 8dBm
**.loRaNodes[57].**initialLoRaTP = 2dBm
**.loRaNodes[58].**initialLoRaTP = 8dBm
**.loRaNodes[59].**initialLoRaTP = 8dBm
**.loRaNodes[60].**initialLoRaTP = 8dBm
**.loRaNodes[61].**initialLoRaTP = 8dBm
**.loRaNodes[62].**initialLoRaTP = 8dBm
**.loRaNodes[63].**initialLoRaTP = 8dBm
**.loRaNodes[64].**initialLoRaTP = 8dBm
**.loRaNodes[65].**initialLoRaTP = 8dBm
**.loRaNodes[66].**initialLoRaTP = 8dBm
**.loRaNodes[67].**initialLoRaTP = 8dBm
**.loRaNodes[68].**initialLoRaTP = 8dBm
**.loRaNodes[69].**initialLoRaTP = 8dBm
**.loRaNodes[70].**initialLoRaTP = 8dBm
**.loRaNodes[71].**initialLoRaTP = 8dBm
**.loRaNodes[72].**initialLoRaTP = 8dBm
**.loRaNodes[73].**initialLoRaTP = 8dBm
**.loRaNodes[74].**initialLoRaTP = 8dBm
**.loRaNodes[75].**initialLoRaTP = 8dBm
**.loRaNodes[76].**initialLoRaTP = 8dBm
**.loRaNodes[77].**initialLoRaTP = 8dBm
**.loRaNodes[78].**initialLoRaTP = 8dBm
**.loRaNodes[79].**initialLoRaTP = 8dBm
**.loRaNodes[80].**initialLoRaTP = 8dBm
**.loRaNodes[81].**initialLoRaTP = 8dBm
**.loRaNodes[82].**initialLoRaTP = 8dBm
**.loRaNodes[83].**initialLoRaTP = 8dBm
**.loRaNodes[84].**initialLoRaTP = 8dBm
**.loRaNodes[85].**initialLoRaTP = 8dBm
**.loRaNodes[86].**initialLoRaTP = 8dBm
**.loRaNodes[87].**initialLoRaTP = 8dBm
**.loRaNodes[88].**initialLoRaTP = 8dBm
**.loRaNodes[89].**initialLoRaTP = 8dBm
**.loRaNodes[90].**initialLoRaTP = 8dBm
**.loRaNodes[91].**initialLoRaTP = 8dBm
**.loRaNodes[92].**initialLoRaTP = 8dBm
**.loRaNodes[93].**initialLoRaTP = 8dBm
**.loRaNodes[94].**initialLoRaTP = 8dBm
**.loRaNodes[95].**initialLoRaTP = 8dBm
**.loRaNodes[96].**initialLoRaTP = 8dBm
**.loRaNodes[97].**initialLoRaTP = 8dBm
**.loRaNodes[98].**initialLoRaTP = 8dBm
**.loRaNodes[99].**initialLoRaTP = 8dBm

[RR-UrbanAVG]
#eventlog-file = ../results/${configname}/n100-gw1-s${runnumber}.elog 
output-vector-file = ../results/${configname}/gw1-s${runnumber}-${iterationvarsf}.ini.vec
output-scalar-file = ../results/${configname}/gw1-s${runnumber}-${iterationvarsf}.ini.sca
record-eventlog = false
**.vector-recording = false
#cmdenv-autoflush = true
#cmdenv-status-frequency = 10000000s
cmdenv-express-mode = true
#cmdenv-output-file = cmd_env_log.txt

rng-class = "cMersenneTwister"

**.networkServer.**.evaluateADRinServer = true
**.networkServer.app[0].adrMethod = ${rr="avg"}

**.numberOfPacketsToSend = 0 #${numberOfPAckets = 200..5000 step 200} #100 #obviously 0 means infinite number of packets
sim-time-limit = 12d
repeat = 3
warmup-period = 2d

#seed-set = ${repetition}
#seed-set = 0 #seed will produce same number every run meaning same output
experiment-label = " ${configname}"
replication-label = "#${repetition}"

#nodes features
**.numberOfNodes = ${n=100..700 step 100}
**.loRaNodes[*].**.evaluateADRinNode = true
**.loRaNodes[*].**initialLoRaSF = intuniform(7,12)
#**.loRaNodes[*].**initialLoRaTP = 2dBm + (3dBm * intuniform(0dBm, 4dBm))

# random deployment of nodes in a square square area
**.loRaNodes[*].**.initialX = uniform(0m, 480m)
**.loRaNodes[*].**.initialY = uniform(0m, 480m)

#gateway features
**.numberOfGateways = 1
**.LoRaGWNic.radio.iAmGateway = true
**.loRaGW[*].**.initFromDisplayString = false
**.loRaGW[0].**.initialX = 240.00m
**.loRaGW[0].**.initialY = 240.00m

#**.loRaGW[0].**.initialX = 544.00m
#**.loRaGW[0].**.initialY = 544.00m

#general features
**.constraintAreaMinX = 0m
**.constraintAreaMinY = 0m
**.constraintAreaMinZ = 0m
**.constraintAreaMaxX = 480m
**.constraintAreaMaxY = 480m
**.constraintAreaMaxZ = 0m

#**.constraintAreaMaxX = 2376.0m
#**.constraintAreaMaxY = 1090.0m

#urban scenario
**.alpha = 2.08
**.sigma = ${s=0} #ideal
#**.sigma = ${s=1.785} #moderate
#**.sigma = ${s=3.57} #typical
**.d0 = 40m
**.PL_d0_db = 127.41

##suburban scenario
#**.alpha = 2.32
#**.sigma = 0 #ideal
##**.sigma = 3.540 #moderate
##**.sigma = 7.08 #typical
#**.d0 = 1000m
#**.PL_d0_db = 128.95

[RR-SuburbanAVG]
#eventlog-file = ../results/${configname}/n100-gw1-s${runnumber}.elog 
output-vector-file = ../results/${configname}/gw1-s${runnumber}-${iterationvarsf}-fix.ini.vec
output-scalar-file = ../results/${configname}/gw1-s${runnumber}-${iterationvarsf}-fix.ini.sca
record-eventlog = false
**.vector-recording = false
#cmdenv-autoflush = true
#cmdenv-status-frequency = 10000000s
cmdenv-express-mode = true
#cmdenv-output-file = cmd_env_log.txt

rng-class = "cMersenneTwister"

**.networkServer.**.evaluateADRinServer = true
**.networkServer.app[0].adrMethod = ${rr="avg"}

**.numberOfPacketsToSend = 0 #${numberOfPAckets = 200..5000 step 200} #100 #obviously 0 means infinite number of packets
sim-time-limit = 12d
repeat = 3
warmup-period = 2d

seed-set = ${repetition}
#seed-set = 0 #seed will produce same number every run meaning same output
experiment-label = " ${configname}"
replication-label = "#${repetition}"

#nodes features
**.numberOfNodes = ${n=100..700 step 100}
**.loRaNodes[*].**.evaluateADRinNode = true
**.loRaNodes[*].**initialLoRaSF = intuniform(7,12)
#**.loRaNodes[*].**initialLoRaTP = 2dBm + (3dBm * intuniform(0dBm, 4dBm))

# random deployment of nodes in a square square area
**.loRaNodes[*].**.initialX = uniform(0m, 9800m)
**.loRaNodes[*].**.initialY = uniform(0m, 9800m)

#gateway features
**.numberOfGateways = 1
**.LoRaGWNic.radio.iAmGateway = true
**.loRaGW[*].**.initFromDisplayString = false
**.loRaGW[0].**.initialX = 4900.00m
**.loRaGW[0].**.initialY = 4900.00m

#**.loRaGW[0].**.initialX = 544.00m
#**.loRaGW[0].**.initialY = 544.00m

#general features
**.constraintAreaMinX = 0m
**.constraintAreaMinY = 0m
**.constraintAreaMinZ = 0m
**.constraintAreaMaxX = 9800m
**.constraintAreaMaxY = 9800m
**.constraintAreaMaxZ = 0m

#**.constraintAreaMaxX = 2376.0m
#**.constraintAreaMaxY = 1090.0m

##urban scenario
#**.alpha = 2.08
#**.sigma = 0 #ideal
##**.sigma = 1.785 #moderate
##**.sigma = 3.57 #typical
#**.d0 = 40m
#**.PL_d0_db = 127.41

#suburban scenario
**.alpha = 2.32
#**.sigma = ${s=0} #ideal
#**.sigma = ${s=3.540} #moderate
**.sigma = ${s=7.08} #typical
**.d0 = 1000m
**.PL_d0_db = 128.95

**.loRaNodes[0].**initialLoRaTP = 11dBm
**.loRaNodes[1].**initialLoRaTP = 2dBm
**.loRaNodes[2].**initialLoRaTP = 8dBm
**.loRaNodes[3].**initialLoRaTP = 8dBm
**.loRaNodes[4].**initialLoRaTP = 2dBm
**.loRaNodes[5].**initialLoRaTP = 2dBm
**.loRaNodes[6].**initialLoRaTP = 14dBm
**.loRaNodes[7].**initialLoRaTP = 14dBm
**.loRaNodes[8].**initialLoRaTP = 14dBm
**.loRaNodes[9].**initialLoRaTP = 8dBm
**.loRaNodes[10].**initialLoRaTP = 11dBm
**.loRaNodes[11].**initialLoRaTP = 14dBm
**.loRaNodes[12].**initialLoRaTP = 2dBm
**.loRaNodes[13].**initialLoRaTP = 8dBm
**.loRaNodes[14].**initialLoRaTP = 2dBm
**.loRaNodes[15].**initialLoRaTP = 5dBm
**.loRaNodes[16].**initialLoRaTP = 5dBm
**.loRaNodes[17].**initialLoRaTP = 14dBm
**.loRaNodes[18].**initialLoRaTP = 11dBm
**.loRaNodes[19].**initialLoRaTP = 8dBm
**.loRaNodes[20].**initialLoRaTP = 5dBm
**.loRaNodes[21].**initialLoRaTP = 2dBm
**.loRaNodes[22].**initialLoRaTP = 11dBm
**.loRaNodes[23].**initialLoRaTP = 14dBm
**.loRaNodes[24].**initialLoRaTP = 5dBm
**.loRaNodes[25].**initialLoRaTP = 8dBm
**.loRaNodes[26].**initialLoRaTP = 2dBm
**.loRaNodes[27].**initialLoRaTP = 14dBm
**.loRaNodes[28].**initialLoRaTP = 2dBm
**.loRaNodes[29].**initialLoRaTP = 2dBm
**.loRaNodes[30].**initialLoRaTP = 11dBm
**.loRaNodes[31].**initialLoRaTP = 2dBm
**.loRaNodes[32].**initialLoRaTP = 8dBm
**.loRaNodes[33].**initialLoRaTP = 5dBm
**.loRaNodes[34].**initialLoRaTP = 11dBm
**.loRaNodes[35].**initialLoRaTP = 5dBm
**.loRaNodes[36].**initialLoRaTP = 2dBm
**.loRaNodes[37].**initialLoRaTP = 8dBm
**.loRaNodes[38].**initialLoRaTP = 2dBm
**.loRaNodes[39].**initialLoRaTP = 5dBm
**.loRaNodes[40].**initialLoRaTP = 5dBm
**.loRaNodes[41].**initialLoRaTP = 5dBm
**.loRaNodes[42].**initialLoRaTP = 8dBm
**.loRaNodes[43].**initialLoRaTP = 8dBm
**.loRaNodes[44].**initialLoRaTP = 5dBm
**.loRaNodes[45].**initialLoRaTP = 5dBm
**.loRaNodes[46].**initialLoRaTP = 8dBm
**.loRaNodes[47].**initialLoRaTP = 14dBm
**.loRaNodes[48].**initialLoRaTP = 2dBm
**.loRaNodes[49].**initialLoRaTP = 8dBm
**.loRaNodes[50].**initialLoRaTP = 5dBm
**.loRaNodes[51].**initialLoRaTP = 8dBm
**.loRaNodes[52].**initialLoRaTP = 8dBm
**.loRaNodes[53].**initialLoRaTP = 5dBm
**.loRaNodes[54].**initialLoRaTP = 11dBm
**.loRaNodes[55].**initialLoRaTP = 5dBm
**.loRaNodes[56].**initialLoRaTP = 8dBm
**.loRaNodes[57].**initialLoRaTP = 8dBm
**.loRaNodes[58].**initialLoRaTP = 2dBm
**.loRaNodes[59].**initialLoRaTP = 2dBm
**.loRaNodes[60].**initialLoRaTP = 2dBm
**.loRaNodes[61].**initialLoRaTP = 5dBm
**.loRaNodes[62].**initialLoRaTP = 8dBm
**.loRaNodes[63].**initialLoRaTP = 14dBm
**.loRaNodes[64].**initialLoRaTP = 5dBm
**.loRaNodes[65].**initialLoRaTP = 8dBm
**.loRaNodes[66].**initialLoRaTP = 5dBm
**.loRaNodes[67].**initialLoRaTP = 14dBm
**.loRaNodes[68].**initialLoRaTP = 11dBm
**.loRaNodes[69].**initialLoRaTP = 5dBm
**.loRaNodes[70].**initialLoRaTP = 2dBm
**.loRaNodes[71].**initialLoRaTP = 14dBm
**.loRaNodes[72].**initialLoRaTP = 11dBm
**.loRaNodes[73].**initialLoRaTP = 5dBm
**.loRaNodes[74].**initialLoRaTP = 14dBm
**.loRaNodes[75].**initialLoRaTP = 11dBm
**.loRaNodes[76].**initialLoRaTP = 8dBm
**.loRaNodes[77].**initialLoRaTP = 5dBm
**.loRaNodes[78].**initialLoRaTP = 5dBm
**.loRaNodes[79].**initialLoRaTP = 14dBm
**.loRaNodes[80].**initialLoRaTP = 14dBm
**.loRaNodes[81].**initialLoRaTP = 5dBm
**.loRaNodes[82].**initialLoRaTP = 2dBm
**.loRaNodes[83].**initialLoRaTP = 14dBm
**.loRaNodes[84].**initialLoRaTP = 5dBm
**.loRaNodes[85].**initialLoRaTP = 14dBm
**.loRaNodes[86].**initialLoRaTP = 2dBm
**.loRaNodes[87].**initialLoRaTP = 14dBm
**.loRaNodes[88].**initialLoRaTP = 11dBm
**.loRaNodes[89].**initialLoRaTP = 11dBm
**.loRaNodes[90].**initialLoRaTP = 14dBm
**.loRaNodes[91].**initialLoRaTP = 2dBm
**.loRaNodes[92].**initialLoRaTP = 5dBm
**.loRaNodes[93].**initialLoRaTP = 2dBm
**.loRaNodes[94].**initialLoRaTP = 8dBm
**.loRaNodes[95].**initialLoRaTP = 11dBm
**.loRaNodes[96].**initialLoRaTP = 8dBm
**.loRaNodes[97].**initialLoRaTP = 5dBm
**.loRaNodes[98].**initialLoRaTP = 2dBm
**.loRaNodes[99].**initialLoRaTP = 8dBm

[RR-UrbanMAX]
#eventlog-file = ../results/${configname}/n100-gw1-s${runnumber}.elog 
output-vector-file = ../results/${configname}/gw1-s${runnumber}-${iterationvarsf}.ini.vec
output-scalar-file = ../results/${configname}/gw1-s${runnumber}-${iterationvarsf}.ini.sca
record-eventlog = false
**.vector-recording = false
#cmdenv-autoflush = true
#cmdenv-status-frequency = 10000000s
cmdenv-express-mode = true
#cmdenv-output-file = cmd_env_log.txt

rng-class = "cMersenneTwister"

**.networkServer.**.evaluateADRinServer = true
**.networkServer.app[0].adrMethod = ${rr="max"}

**.numberOfPacketsToSend = 0 #${numberOfPAckets = 200..5000 step 200} #100 #obviously 0 means infinite number of packets
sim-time-limit = 1d
repeat = 3
warmup-period = 0d

seed-set = ${repetition}
#seed-set = 0 #seed will produce same number every run meaning same output
experiment-label = " ${configname}"
replication-label = "#${repetition}"

#nodes features
**.numberOfNodes = ${n=100..700 step 100}
**.loRaNodes[*].**.evaluateADRinNode = true
**.loRaNodes[*].**initialLoRaSF = intuniform(7,12)
#**.loRaNodes[*].**initialLoRaTP = 2dBm + (3dBm * intuniform(0dBm, 4dBm))

# random deployment of nodes in a square square area
**.loRaNodes[*].**.initialX = uniform(0m, 480m)
**.loRaNodes[*].**.initialY = uniform(0m, 480m)

#gateway features
**.numberOfGateways = 1
**.LoRaGWNic.radio.iAmGateway = true
**.loRaGW[*].**.initFromDisplayString = false
**.loRaGW[0].**.initialX = 240.00m
**.loRaGW[0].**.initialY = 240.00m

#**.loRaGW[0].**.initialX = 544.00m
#**.loRaGW[0].**.initialY = 544.00m

#general features
**.constraintAreaMinX = 0m
**.constraintAreaMinY = 0m
**.constraintAreaMinZ = 0m
**.constraintAreaMaxX = 480m
**.constraintAreaMaxY = 480m
**.constraintAreaMaxZ = 0m

#**.constraintAreaMaxX = 2376.0m
#**.constraintAreaMaxY = 1090.0m

#urban scenario
**.alpha = 2.08
#**.sigma = ${s=0} #ideal
#**.sigma = ${s=1.785} #moderate
**.sigma = ${s=3.57} #typical
**.d0 = 40m
**.PL_d0_db = 127.41

##suburban scenario
#**.alpha = 2.32
#**.sigma = 0 #ideal
##**.sigma = 3.540 #moderate
##**.sigma = 7.08 #typical
#**.d0 = 1000m
#**.PL_d0_db = 128.95

**.loRaNodes[0].**initialLoRaTP = 11dBm
**.loRaNodes[1].**initialLoRaTP = 2dBm
**.loRaNodes[2].**initialLoRaTP = 8dBm
**.loRaNodes[3].**initialLoRaTP = 8dBm
**.loRaNodes[4].**initialLoRaTP = 2dBm
**.loRaNodes[5].**initialLoRaTP = 2dBm
**.loRaNodes[6].**initialLoRaTP = 14dBm
**.loRaNodes[7].**initialLoRaTP = 14dBm
**.loRaNodes[8].**initialLoRaTP = 14dBm
**.loRaNodes[9].**initialLoRaTP = 8dBm
**.loRaNodes[10].**initialLoRaTP = 11dBm
**.loRaNodes[11].**initialLoRaTP = 14dBm
**.loRaNodes[12].**initialLoRaTP = 2dBm
**.loRaNodes[13].**initialLoRaTP = 8dBm
**.loRaNodes[14].**initialLoRaTP = 2dBm
**.loRaNodes[15].**initialLoRaTP = 5dBm
**.loRaNodes[16].**initialLoRaTP = 5dBm
**.loRaNodes[17].**initialLoRaTP = 14dBm
**.loRaNodes[18].**initialLoRaTP = 11dBm
**.loRaNodes[19].**initialLoRaTP = 8dBm
**.loRaNodes[20].**initialLoRaTP = 5dBm
**.loRaNodes[21].**initialLoRaTP = 2dBm
**.loRaNodes[22].**initialLoRaTP = 11dBm
**.loRaNodes[23].**initialLoRaTP = 14dBm
**.loRaNodes[24].**initialLoRaTP = 5dBm
**.loRaNodes[25].**initialLoRaTP = 8dBm
**.loRaNodes[26].**initialLoRaTP = 2dBm
**.loRaNodes[27].**initialLoRaTP = 14dBm
**.loRaNodes[28].**initialLoRaTP = 2dBm
**.loRaNodes[29].**initialLoRaTP = 2dBm
**.loRaNodes[30].**initialLoRaTP = 11dBm
**.loRaNodes[31].**initialLoRaTP = 2dBm
**.loRaNodes[32].**initialLoRaTP = 8dBm
**.loRaNodes[33].**initialLoRaTP = 5dBm
**.loRaNodes[34].**initialLoRaTP = 11dBm
**.loRaNodes[35].**initialLoRaTP = 5dBm
**.loRaNodes[36].**initialLoRaTP = 2dBm
**.loRaNodes[37].**initialLoRaTP = 8dBm
**.loRaNodes[38].**initialLoRaTP = 2dBm
**.loRaNodes[39].**initialLoRaTP = 5dBm
**.loRaNodes[40].**initialLoRaTP = 5dBm
**.loRaNodes[41].**initialLoRaTP = 5dBm
**.loRaNodes[42].**initialLoRaTP = 8dBm
**.loRaNodes[43].**initialLoRaTP = 8dBm
**.loRaNodes[44].**initialLoRaTP = 5dBm
**.loRaNodes[45].**initialLoRaTP = 5dBm
**.loRaNodes[46].**initialLoRaTP = 8dBm
**.loRaNodes[47].**initialLoRaTP = 14dBm
**.loRaNodes[48].**initialLoRaTP = 2dBm
**.loRaNodes[49].**initialLoRaTP = 8dBm
**.loRaNodes[50].**initialLoRaTP = 5dBm
**.loRaNodes[51].**initialLoRaTP = 8dBm
**.loRaNodes[52].**initialLoRaTP = 8dBm
**.loRaNodes[53].**initialLoRaTP = 5dBm
**.loRaNodes[54].**initialLoRaTP = 11dBm
**.loRaNodes[55].**initialLoRaTP = 5dBm
**.loRaNodes[56].**initialLoRaTP = 8dBm
**.loRaNodes[57].**initialLoRaTP = 8dBm
**.loRaNodes[58].**initialLoRaTP = 2dBm
**.loRaNodes[59].**initialLoRaTP = 2dBm
**.loRaNodes[60].**initialLoRaTP = 2dBm
**.loRaNodes[61].**initialLoRaTP = 5dBm
**.loRaNodes[62].**initialLoRaTP = 8dBm
**.loRaNodes[63].**initialLoRaTP = 14dBm
**.loRaNodes[64].**initialLoRaTP = 5dBm
**.loRaNodes[65].**initialLoRaTP = 8dBm
**.loRaNodes[66].**initialLoRaTP = 5dBm
**.loRaNodes[67].**initialLoRaTP = 14dBm
**.loRaNodes[68].**initialLoRaTP = 11dBm
**.loRaNodes[69].**initialLoRaTP = 5dBm
**.loRaNodes[70].**initialLoRaTP = 2dBm
**.loRaNodes[71].**initialLoRaTP = 14dBm
**.loRaNodes[72].**initialLoRaTP = 11dBm
**.loRaNodes[73].**initialLoRaTP = 5dBm
**.loRaNodes[74].**initialLoRaTP = 14dBm
**.loRaNodes[75].**initialLoRaTP = 11dBm
**.loRaNodes[76].**initialLoRaTP = 8dBm
**.loRaNodes[77].**initialLoRaTP = 5dBm
**.loRaNodes[78].**initialLoRaTP = 5dBm
**.loRaNodes[79].**initialLoRaTP = 14dBm
**.loRaNodes[80].**initialLoRaTP = 14dBm
**.loRaNodes[81].**initialLoRaTP = 5dBm
**.loRaNodes[82].**initialLoRaTP = 2dBm
**.loRaNodes[83].**initialLoRaTP = 14dBm
**.loRaNodes[84].**initialLoRaTP = 5dBm
**.loRaNodes[85].**initialLoRaTP = 14dBm
**.loRaNodes[86].**initialLoRaTP = 2dBm
**.loRaNodes[87].**initialLoRaTP = 14dBm
**.loRaNodes[88].**initialLoRaTP = 11dBm
**.loRaNodes[89].**initialLoRaTP = 11dBm
**.loRaNodes[90].**initialLoRaTP = 14dBm
**.loRaNodes[91].**initialLoRaTP = 2dBm
**.loRaNodes[92].**initialLoRaTP = 5dBm
**.loRaNodes[93].**initialLoRaTP = 2dBm
**.loRaNodes[94].**initialLoRaTP = 8dBm
**.loRaNodes[95].**initialLoRaTP = 11dBm
**.loRaNodes[96].**initialLoRaTP = 8dBm
**.loRaNodes[97].**initialLoRaTP = 5dBm
**.loRaNodes[98].**initialLoRaTP = 2dBm
**.loRaNodes[99].**initialLoRaTP = 8dBm

[RR-SuburbanMAX]
#eventlog-file = ../results/${configname}/n100-gw1-s${runnumber}.elog 
output-vector-file = ../results/${configname}/gw1-s${runnumber}-${iterationvarsf}V3.ini.vec
output-scalar-file = ../results/${configname}/gw1-s${runnumber}-${iterationvarsf}V3.ini.sca
record-eventlog = false
**.vector-recording = false
#cmdenv-autoflush = true
#cmdenv-status-frequency = 10000000s
cmdenv-express-mode = true
#cmdenv-output-file = cmd_env_log.txt

rng-class = "cMersenneTwister"

**.networkServer.**.evaluateADRinServer = true
**.networkServer.app[0].adrMethod = ${rr="max"}

**.numberOfPacketsToSend = 0 #${numberOfPAckets = 200..5000 step 200} #100 #obviously 0 means infinite number of packets
sim-time-limit = 12d
repeat = 3
warmup-period = 2d

seed-set = ${repetition}
#seed-set = 0 #seed will produce same number every run meaning same output
experiment-label = " ${configname}"
replication-label = "#${repetition}"

#nodes features
**.numberOfNodes = ${n=100..700 step 100}
**.loRaNodes[*].**.evaluateADRinNode = true
**.loRaNodes[*].**initialLoRaSF = intuniform(7,12)
#**.loRaNodes[*].**initialLoRaTP = 2dBm + (3dBm * intuniform(0dBm, 4dBm))

# random deployment of nodes in a square square area
**.loRaNodes[*].**.initialX = uniform(0m, 9800m)
**.loRaNodes[*].**.initialY = uniform(0m, 9800m)

#gateway features
**.numberOfGateways = 1
**.LoRaGWNic.radio.iAmGateway = true
**.loRaGW[*].**.initFromDisplayString = false
**.loRaGW[0].**.initialX = 4900.00m
**.loRaGW[0].**.initialY = 4900.00m

#**.loRaGW[0].**.initialX = 544.00m
#**.loRaGW[0].**.initialY = 544.00m

#general features
**.constraintAreaMinX = 0m
**.constraintAreaMinY = 0m
**.constraintAreaMinZ = 0m
**.constraintAreaMaxX = 9800m
**.constraintAreaMaxY = 9800m
**.constraintAreaMaxZ = 0m

#**.constraintAreaMaxX = 2376.0m
#**.constraintAreaMaxY = 1090.0m

##urban scenario
#**.alpha = 2.08
#**.sigma = 0 #ideal
##**.sigma = 1.785 #moderate
##**.sigma = 3.57 #typical
#**.d0 = 40m
#**.PL_d0_db = 127.41

#suburban scenario
**.alpha = 2.32
#**.sigma = ${s=0} #ideal
#**.sigma = ${s=3.540} #moderate
**.sigma = ${s=7.08} #typical
**.d0 = 1000m
**.PL_d0_db = 128.95

